LTspice 24.0.12 for Windows
Circuit: * C:\Users\SARTHAK AGGARWAL\OneDrive\Desktop\vlsi_project\new_project\hartley_osc.asc
Start Time: Thu Apr 24 11:59:18 2025
solver = Normal
Maximum thread count: 12
tnom = 27
temp = 27
method = modified trap
Limiting rise time of source v1 to 3.6e-10
Limiting fall time of source v1 to 3.6e-10
.OP point found by inspection.
Total elapsed time: 0.100 seconds.

