LTspice 24.0.12 for Windows
Circuit: * C:\Users\SARTHAK AGGARWAL\OneDrive\Desktop\vlsi_project\new_project\wein_osc.asc
Start Time: Thu Apr 24 12:00:40 2025
solver = Normal
Maximum thread count: 12
tnom = 27
temp = 27
method = modified trap
Limiting rise time of source v1 to 3.6e-10
Limiting fall time of source v1 to 3.6e-10
WARNING: Node OUTPUT is floating.

Instance "m1": Length shorter than recommended for a level 1 MOSFET.
Instance "m1": Width narrower than recommended for a level 1 MOSFET.
Instance "m2": Length shorter than recommended for a level 1 MOSFET.
Instance "m2": Width narrower than recommended for a level 1 MOSFET.
.OP point found by inspection.
Total elapsed time: 0.103 seconds.

